  
       XFOIL         Version 6.99
  
 Calculated polar for: NACA 0009                                       
  
 1 1 Reynolds number fixed          Mach number fixed         
  
 xtrf =   1.000 (top)        1.000 (bottom)  
 Mach =   0.000     Re =     0.500 e 6     Ncrit =   9.000
  
   alpha    CL        CD       CDp       CM     Top_Xtr  Bot_Xtr
  ------ -------- --------- --------- -------- -------- --------
   0.100   0.0105   0.00530   0.00186   0.0004   0.9050   0.9211
