  
       XFOIL         Version 6.99
  
 Calculated polar for: NACA 0082                                       
  
 1 1 Reynolds number fixed          Mach number fixed         
  
 xtrf =   1.000 (top)        1.000 (bottom)  
 Mach =   0.000     Re =     0.500 e 6     Ncrit =   9.000
  
   alpha    CL        CD       CDp       CM     Top_Xtr  Bot_Xtr
  ------ -------- --------- --------- -------- -------- --------
   0.100  -0.0172   0.12327   0.11644   0.0015   0.3729   0.3744
