  
       XFOIL         Version 6.99
  
 Calculated polar for: NACA 1682                                       
  
 1 1 Reynolds number fixed          Mach number fixed         
  
 xtrf =   1.000 (top)        1.000 (bottom)  
 Mach =   0.000     Re =     0.500 e 6     Ncrit =   9.000
  
   alpha    CL        CD       CDp       CM     Top_Xtr  Bot_Xtr
  ------ -------- --------- --------- -------- -------- --------
   0.100  -0.0130   0.11873   0.11164  -0.0080   0.3802   0.3688
