  
       XFOIL         Version 6.99
  
 Calculated polar for: NACA 0041                                       
  
 1 1 Reynolds number fixed          Mach number fixed         
  
 xtrf =   1.000 (top)        1.000 (bottom)  
 Mach =   0.000     Re =     0.500 e 6     Ncrit =   9.000
  
   alpha    CL        CD       CDp       CM     Top_Xtr  Bot_Xtr
  ------ -------- --------- --------- -------- -------- --------
   0.100  -0.0016   0.01827   0.01078   0.0022   0.4440   0.4467
