  
       XFOIL         Version 6.99
  
 Calculated polar for: NACA 0025                                       
  
 1 1 Reynolds number fixed          Mach number fixed         
  
 xtrf =   1.000 (top)        1.000 (bottom)  
 Mach =   0.000     Re =     0.500 e 6     Ncrit =   9.000
  
   alpha    CL        CD       CDp       CM     Top_Xtr  Bot_Xtr
  ------ -------- --------- --------- -------- -------- --------
   0.100   0.0099   0.01078   0.00421   0.0003   0.5267   0.5347
