  
       XFOIL         Version 6.99
  
 Calculated polar for: NACA 0050                                       
  
 1 1 Reynolds number fixed          Mach number fixed         
  
 xtrf =   1.000 (top)        1.000 (bottom)  
 Mach =   0.000     Re =     0.500 e 6     Ncrit =   9.000
  
   alpha    CL        CD       CDp       CM     Top_Xtr  Bot_Xtr
  ------ -------- --------- --------- -------- -------- --------
   0.100  -0.0043   0.02692   0.01931   0.0020   0.4219   0.4240
