  
       XFOIL         Version 6.99
  
 Calculated polar for: NACA 0052                                       
  
 1 1 Reynolds number fixed          Mach number fixed         
  
 xtrf =   1.000 (top)        1.000 (bottom)  
 Mach =   0.000     Re =     0.500 e 6     Ncrit =   9.000
  
   alpha    CL        CD       CDp       CM     Top_Xtr  Bot_Xtr
  ------ -------- --------- --------- -------- -------- --------
   0.100  -0.0021   0.02972   0.02207   0.0016   0.4178   0.4199
