  
       XFOIL         Version 6.99
  
 Calculated polar for: NACA 0873                                       
  
 1 1 Reynolds number fixed          Mach number fixed         
  
 xtrf =   1.000 (top)        1.000 (bottom)  
 Mach =   0.000     Re =     0.500 e 6     Ncrit =   9.000
  
   alpha    CL        CD       CDp       CM     Top_Xtr  Bot_Xtr
  ------ -------- --------- --------- -------- -------- --------
   0.100   0.0056   0.08449   0.07712  -0.0004   0.3850   0.3864
